# avogadro generated ORCA input file 
# Basic Mode
# 
!BP86 DEF2-SVP NUMFREQ
%ELPROP
   POLAR 1
END
* xyz 0 1
   C       -4.32757        1.16257       -0.02268
   C       -2.87154        1.60036       -0.06503
   H       -4.82840        1.41352       -0.98185
   H       -4.85575        1.67572        0.80886
   H       -4.38506        0.06513        0.13706
   O       -2.80687        2.98394       -0.26834
   H       -2.36448        1.06909       -0.90114
   H       -2.38923        1.33694        0.90236
   H       -1.84187        3.20772       -0.32752
*

