# avogadro generated ORCA input file 
# Basic Mode
# 
! BP RI SP def2-SVP def2-SVP/J 

* xyz 0 1
   C       -2.51496        0.67475        0.01104
   C       -1.20846        1.40640       -0.03345
   H       -3.36638        1.38473       -0.06404
   H       -2.59839        0.11688        0.96699
   H       -2.57106       -0.04048       -0.83598
   C        0.08236        0.62790        0.05524
   C        1.32762        1.52450       -0.01051
   H        0.11270       -0.09848       -0.78577
   H        0.08793        0.06435        1.01336
   C        2.61504        0.69626        0.08467
   H        1.30009        2.25324        0.82978
   H        1.32287        2.08347       -0.97255
   C        3.85311        1.60202        0.00151
   H        2.64203       -0.03697       -0.75175
   H        2.62532        0.14305        1.04981
   C        5.15812        0.84552        0.08797
   H        3.82257        2.34133        0.83123
   H        3.83291        2.15049       -0.96539
   O       -1.20494        2.62454       -0.14134
   O        5.16245       -0.37124        0.22672
   N        6.33014        1.53005        0.00374
   C        7.61825        0.86337        0.07190
   H        6.29569        2.55459       -0.11967
   C        8.76341        1.87095       -0.08603
   H        7.68323        0.11155       -0.74556
   H        7.71264        0.34325        1.05062
   C       10.12824        1.17460       -0.03063
   H        8.70176        2.62966        0.72514
   H        8.65382        2.38493       -1.06658
   C       11.26641        2.18183       -0.23579
   H       10.17781        0.40470       -0.83213
   H       10.24725        0.67323        0.95524
   C       12.63237        1.48618       -0.19625
   H       11.22412        2.95780        0.56027
   H       11.13811        2.67623       -1.22416
   C       13.76794        2.48529       -0.44068
   H       12.66647        0.70085       -0.98318
   H       12.77469        1.00431        0.79609
   N       15.06330        1.79830       -0.39320
   H       13.73262        3.27075        0.34719
   H       13.62653        2.96517       -1.43607
   C       16.15799        2.74202       -0.62210
   H       15.09660        1.07410       -1.14895
   H       16.16424        3.52745        0.16394
   H       16.06753        3.21671       -1.62421
   H       17.12616        2.20028       -0.57601
*

