# avogadro generated ORCA input file 
# Basic Mode
# 
!BP86 DEF2-SVP NUMFREQ
%ELPROP
   POLAR 1
END

* xyz 0
 1
   C       -4.71928        1.47112       -0.25196
   C       -3.58027        0.45213       -0.44156
   H       -2.90599        0.42858        0.42209
   H       -2.98476        0.67970       -1.33226
   H       -3.98587       -0.55872       -0.56132
   C       -4.22066        2.90827       -0.32567
   C       -2.98034        3.31479        0.18468
   C       -5.02797        3.87717       -0.94696
   C       -4.61133        5.20518       -1.05377
   C       -3.37090        5.58613       -0.55738
   C       -2.55336        4.64112        0.05988
   H       -5.26174        5.93707       -1.52593
   H       -3.04074        6.61713       -0.64898
   H       -1.58116        4.93604        0.44354
   H       -2.31818        2.60723        0.67682
   H       -6.00238        3.60265       -1.34285
   C       -5.48354        1.12260        1.05273
   H       -5.39327        1.31499       -1.10510
   C       -6.86581        1.86233        1.31110
   H       -4.83729        1.28238        1.92705
   H       -5.70170        0.04535        1.02441
   C       -7.81509        1.79723        0.23853
   C       -7.55779        0.89363        2.48518
   H       -7.71710       -0.10915        2.07253
   H       -8.51866        1.32089        2.79430
   H       -6.87874        0.83395        3.34231
   C       -6.74062        3.13180        1.96835
   C       -7.63658        4.17330        1.71523
   C       -8.62493        4.02367        0.74369
   C       -8.70328        2.84969       -0.00633
   H       -7.85572        0.91324       -0.39635
   H       -9.31244        4.84142        0.54461
   H       -9.44109        2.76353       -0.79942
   H       -5.93239        3.29545        2.68053
   H       -7.54154        5.11035        2.25702
*

